3
LJ=-0.034904, KE=0.000000, Total=-0.034904
Ar 0.000000 0.000000 0.000000
Ar 0.000000 0.000000 0.500000
Ar 0.100000 0.200000 -0.500000
3
LJ=-0.039973, KE=0.005074, Total=-0.034899
Ar 0.001228 0.002457 0.005895
Ar 0.000014 0.000029 0.487820
Ar 0.098757 0.197514 -0.493715
3
LJ=-0.066189, KE=0.031297, Total=-0.034892
Ar 0.004832 0.009663 0.029055
Ar 0.000153 0.000306 0.445403
Ar 0.095015 0.190030 -0.474458
3
LJ=-0.078831, KE=0.043240, Total=-0.035592
Ar 0.011161 0.022322 0.041964
Ar -0.000029 -0.000058 0.399592
Ar 0.088868 0.177737 -0.441557
3
LJ=-0.097859, KE=0.062015, Total=-0.035844
Ar 0.022779 0.045557 -0.038363
Ar -0.001809 -0.003618 0.424113
Ar 0.079030 0.158061 -0.385751
3
LJ=-0.098378, KE=0.063537, Total=-0.034841
Ar 0.019945 0.039890 -0.003897
Ar -0.001716 -0.003432 0.412460
Ar 0.081771 0.163542 -0.408562
3
LJ=-0.080595, KE=0.044879, Total=-0.035717
Ar 0.013887 0.027774 0.044385
Ar -0.001565 -0.003131 0.405409
Ar 0.087678 0.175357 -0.449794
3
LJ=-0.051385, KE=0.016502, Total=-0.034882
Ar 0.014110 0.028219 0.000904
Ar -0.004633 -0.009267 0.469669
Ar 0.090524 0.181048 -0.470573
3
LJ=-0.046166, KE=0.011279, Total=-0.034887
Ar 0.016604 0.033207 -0.032546
Ar -0.006377 -0.012754 0.501568
Ar 0.089773 0.179546 -0.469022
3
LJ=-0.073923, KE=0.038619, Total=-0.035304
Ar 0.023859 0.047718 -0.082564
Ar -0.007415 -0.014831 0.517325
Ar 0.083556 0.167113 -0.434761
3
LJ=-0.067003, KE=0.032047, Total=-0.034956
Ar 0.022294 0.044588 -0.075189
Ar -0.008037 -0.016074 0.525054
Ar 0.085743 0.171486 -0.449865
3
LJ=-0.039301, KE=0.004405, Total=-0.034897
Ar 0.016947 0.033894 -0.040509
Ar -0.008275 -0.016549 0.525315
Ar 0.091328 0.182655 -0.484806
3
LJ=-0.037164, KE=0.002261, Total=-0.034903
Ar 0.016229 0.032458 -0.025750
Ar -0.008020 -0.016040 0.514834
Ar 0.091791 0.183582 -0.489084
3
LJ=-0.047677, KE=0.012781, Total=-0.034895
Ar 0.018863 0.037726 -0.021290
Ar -0.007098 -0.014195 0.489888
Ar 0.088235 0.176470 -0.468598
3
LJ=-0.084330, KE=0.049422, Total=-0.034908
Ar 0.025204 0.050408 -0.027661
Ar -0.005107 -0.010214 0.444624
Ar 0.079903 0.159805 -0.416962
3
LJ=-0.131098, KE=0.095024, Total=-0.036074
Ar 0.030574 0.061147 -0.007383
Ar -0.001017 -0.002034 0.368000
Ar 0.070443 0.140886 -0.360617
3
LJ=-0.085708, KE=0.051428, Total=-0.034280
Ar 0.038139 0.076278 -0.025775
Ar -0.006274 -0.012547 0.389974
Ar 0.068135 0.136270 -0.364199
3
LJ=-0.069502, KE=0.034636, Total=-0.034866
Ar 0.041666 0.083332 -0.003285
Ar -0.014404 -0.028809 0.447848
Ar 0.072739 0.145477 -0.444563
3
LJ=-0.047020, KE=0.012132, Total=-0.034887
Ar 0.043199 0.086398 0.022353
Ar -0.018456 -0.036912 0.472554
Ar 0.075257 0.150514 -0.494907
3
LJ=-0.056451, KE=0.021578, Total=-0.034873
Ar 0.041527 0.083054 0.061164
Ar -0.018084 -0.036167 0.464921
Ar 0.076556 0.153113 -0.526085
3
LJ=-0.045900, KE=0.011027, Total=-0.034872
Ar 0.037626 0.075252 0.111209
Ar -0.014956 -0.029911 0.437417
Ar 0.077330 0.154660 -0.548626
3
LJ=-0.046259, KE=0.011380, Total=-0.034879
Ar 0.046536 0.093072 0.078099
Ar -0.024373 -0.048746 0.488644
Ar 0.077837 0.155675 -0.566742
3
LJ=-0.036128, KE=0.001234, Total=-0.034894
Ar 0.049817 0.099635 0.074396
Ar -0.027939 -0.055878 0.506040
Ar 0.078122 0.156243 -0.580436
3
LJ=-0.052606, KE=0.017729, Total=-0.034877
Ar 0.047260 0.094521 0.100122
Ar -0.025483 -0.050967 0.489960
Ar 0.078223 0.156446 -0.590082
3
LJ=-0.048134, KE=0.012957, Total=-0.035177
Ar 0.042060 0.084119 0.138540
Ar -0.020248 -0.040496 0.458292
Ar 0.078188 0.156376 -0.596832
3
LJ=-0.043371, KE=0.008491, Total=-0.034880
Ar 0.051623 0.103246 0.099050
Ar -0.029671 -0.059342 0.502410
Ar 0.078048 0.156097 -0.601460
3
LJ=-0.035301, KE=0.000408, Total=-0.034893
Ar 0.054438 0.108875 0.091001
Ar -0.032242 -0.064484 0.512498
Ar 0.077805 0.155609 -0.603499
3
LJ=-0.055547, KE=0.020661, Total=-0.034887
Ar 0.050522 0.101044 0.113461
Ar -0.027983 -0.055965 0.489325
Ar 0.077461 0.154921 -0.602786
3
LJ=-0.059794, KE=0.024229, Total=-0.035565
Ar 0.045692 0.091384 0.138864
Ar -0.022717 -0.045434 0.460937
Ar 0.077025 0.154050 -0.599801
3
LJ=-0.041690, KE=0.006807, Total=-0.034882
Ar 0.055010 0.110020 0.095771
Ar -0.031511 -0.063023 0.499002
Ar 0.076501 0.153003 -0.594773
3
LJ=-0.036374, KE=0.001481, Total=-0.034892
Ar 0.056927 0.113855 0.084800
Ar -0.032807 -0.065614 0.502048
Ar 0.075880 0.151759 -0.586848
3
LJ=-0.059734, KE=0.024829, Total=-0.034905
Ar 0.051814 0.103628 0.103623
Ar -0.026964 -0.053929 0.471824
Ar 0.075150 0.150300 -0.575447
3
LJ=-0.067381, KE=0.031868, Total=-0.035513
Ar 0.047513 0.095027 0.115705
Ar -0.021812 -0.043625 0.445069
Ar 0.074299 0.148598 -0.560774
3
LJ=-0.043954, KE=0.009071, Total=-0.034883
Ar 0.055612 0.111223 0.066426
Ar -0.028910 -0.057821 0.475936
Ar 0.073299 0.146598 -0.542363
3
LJ=-0.042389, KE=0.007496, Total=-0.034893
Ar 0.056638 0.113277 0.045612
Ar -0.028723 -0.057446 0.471417
Ar 0.072085 0.144169 -0.517029
3
LJ=-0.065839, KE=0.030959, Total=-0.034880
Ar 0.051546 0.103092 0.045719
Ar -0.022073 -0.044145 0.434457
Ar 0.070527 0.141053 -0.480176
3
LJ=-0.075279, KE=0.040481, Total=-0.034797
Ar 0.043010 0.086021 0.049133
Ar -0.011291 -0.022581 0.376724
Ar 0.068280 0.136561 -0.425857
3
LJ=-0.044795, KE=0.011131, Total=-0.033664
Ar 0.046237 0.092474 -0.026152
Ar -0.011552 -0.023104 0.383458
Ar 0.065315 0.130629 -0.357307
3
LJ=-0.076897, KE=0.041424, Total=-0.035474
Ar 0.040181 0.080361 0.046399
Ar -0.010159 -0.020318 0.377472
Ar 0.069978 0.139957 -0.423870
3
LJ=-0.060237, KE=0.025366, Total=-0.034871
Ar 0.047793 0.095587 0.011419
Ar -0.020605 -0.041209 0.450031
Ar 0.072811 0.145623 -0.461450
3
LJ=-0.052538, KE=0.017662, Total=-0.034876
Ar 0.052472 0.104944 -0.025098
Ar -0.026424 -0.052848 0.492725
Ar 0.073952 0.147904 -0.467626
3
LJ=-0.058179, KE=0.022782, Total=-0.035397
Ar 0.056877 0.113755 -0.085337
Ar -0.030120 -0.060239 0.521447
Ar 0.073242 0.146484 -0.436109
3
LJ=-0.056753, KE=0.021868, Total=-0.034885
Ar 0.056969 0.113937 -0.064334
Ar -0.032980 -0.065961 0.544379
Ar 0.076012 0.152023 -0.480045
3
LJ=-0.037205, KE=0.002309, Total=-0.034896
Ar 0.056940 0.113880 -0.050789
Ar -0.035167 -0.070335 0.562695
Ar 0.078227 0.156454 -0.511906
3
LJ=-0.044971, KE=0.010090, Total=-0.034881
Ar 0.057967 0.115934 -0.069460
Ar -0.036715 -0.073429 0.576706
Ar 0.078747 0.157495 -0.507246
3
LJ=-0.044337, KE=0.009399, Total=-0.034938
Ar 0.060268 0.120536 -0.121368
Ar -0.037806 -0.075612 0.587577
Ar 0.077538 0.155076 -0.466209
3
LJ=-0.051153, KE=0.016274, Total=-0.034879
Ar 0.058065 0.116130 -0.087620
Ar -0.038618 -0.077235 0.596429
Ar 0.080553 0.161106 -0.508809
3
LJ=-0.035171, KE=0.000275, Total=-0.034896
Ar 0.056675 0.113350 -0.071659
Ar -0.039126 -0.078252 0.603109
Ar 0.082451 0.164902 -0.531450
3
LJ=-0.047553, KE=0.012675, Total=-0.034878
Ar 0.057007 0.114015 -0.089880
Ar -0.039304 -0.078609 0.607441
Ar 0.082297 0.164594 -0.517561
3
LJ=-0.034613, KE=0.000374, Total=-0.034239
Ar 0.058747 0.117494 -0.134975
Ar -0.039217 -0.078434 0.609832
Ar 0.080470 0.160940 -0.474857
3
LJ=-0.046266, KE=0.011388, Total=-0.034879
Ar 0.054697 0.109395 -0.090810
Ar -0.038933 -0.077866 0.610728
Ar 0.084236 0.168471 -0.519919
3
LJ=-0.035075, KE=0.000179, Total=-0.034895
Ar 0.052600 0.105199 -0.076291
Ar -0.038398 -0.076796 0.609726
Ar 0.085798 0.171597 -0.533435
3
LJ=-0.052539, KE=0.017657, Total=-0.034881
Ar 0.052864 0.105727 -0.096004
Ar -0.037574 -0.075149 0.606530
Ar 0.084711 0.169422 -0.510526
3
LJ=-0.050347, KE=0.015061, Total=-0.035286
Ar 0.053919 0.107838 -0.128590
Ar -0.036504 -0.073007 0.601403
Ar 0.082585 0.165169 -0.472813
3
LJ=-0.043290, KE=0.008408, Total=-0.034883
Ar 0.048274 0.096547 -0.080136
Ar -0.035216 -0.070433 0.594525
Ar 0.086943 0.173885 -0.514390
3
LJ=-0.036486, KE=0.001591, Total=-0.034895
Ar 0.045622 0.091245 -0.066222
Ar -0.033610 -0.067219 0.585053
Ar 0.087987 0.175975 -0.518831
3
LJ=-0.058293, KE=0.023395, Total=-0.034898
Ar 0.045980 0.091961 -0.085352
Ar -0.031605 -0.063211 0.572298
Ar 0.085625 0.171250 -0.486947
3
LJ=-0.064645, KE=0.029099, Total=-0.035546
Ar 0.045971 0.091942 -0.103063
Ar -0.029227 -0.058454 0.556368
Ar 0.083256 0.166513 -0.453306
3
LJ=-0.045223, KE=0.010339, Total=-0.034884
Ar 0.038695 0.077391 -0.050930
Ar -0.026435 -0.052871 0.536802
Ar 0.087740 0.175480 -0.485872
3
LJ=-0.043492, KE=0.008597, Total=-0.034895
Ar 0.034898 0.069796 -0.029554
Ar -0.022860 -0.045721 0.510141
Ar 0.087962 0.175925 -0.480588
3
LJ=-0.066498, KE=0.031618, Total=-0.034880
Ar 0.033819 0.067638 -0.030124
Ar -0.017958 -0.035915 0.471047
Ar 0.084139 0.168277 -0.440924
3
LJ=-0.077957, KE=0.043488, Total=-0.034469
Ar 0.034058 0.068116 -0.038748
Ar -0.010993 -0.021986 0.411993
Ar 0.076935 0.153869 -0.373246
3
LJ=-0.102954, KE=0.065216, Total=-0.037737
Ar 0.026042 0.052084 0.014570
Ar -0.003973 -0.007945 0.355012
Ar 0.077931 0.155862 -0.369582
3
LJ=-0.098481, KE=0.063238, Total=-0.035244
Ar 0.025293 0.050587 -0.032984
Ar -0.008438 -0.016877 0.424865
Ar 0.083145 0.166290 -0.391881
3
LJ=-0.056546, KE=0.021661, Total=-0.034886
Ar 0.015574 0.031148 -0.001652
Ar -0.010258 -0.020515 0.459241
Ar 0.094684 0.189367 -0.457589
3
LJ=-0.060049, KE=0.025164, Total=-0.034885
Ar 0.008332 0.016664 0.039042
Ar -0.010056 -0.020111 0.457942
Ar 0.101724 0.203448 -0.496984
3
LJ=-0.050580, KE=0.015569, Total=-0.035011
Ar 0.001770 0.003540 0.089098
Ar -0.008782 -0.017564 0.437135
Ar 0.107012 0.214023 -0.526233
3
LJ=-0.047052, KE=0.012160, Total=-0.034892
Ar -0.001514 -0.003029 0.057069
Ar -0.010023 -0.020045 0.493950
Ar 0.111537 0.223074 -0.551019
3
LJ=-0.039277, KE=0.004376, Total=-0.034901
Ar -0.004852 -0.009704 0.059200
Ar -0.010529 -0.021059 0.512870
Ar 0.115381 0.230762 -0.572070
3
LJ=-0.064501, KE=0.029502, Total=-0.034999
Ar -0.008161 -0.016322 0.098454
Ar -0.010529 -0.021059 0.491807
Ar 0.118690 0.237381 -0.590261
3
LJ=-0.067781, KE=0.032575, Total=-0.035206
Ar -0.011284 -0.022568 0.114223
Ar -0.010399 -0.020799 0.492487
Ar 0.121683 0.243367 -0.606710
3
LJ=-0.038935, KE=0.004037, Total=-0.034899
Ar -0.014038 -0.028077 0.085981
Ar -0.010408 -0.020816 0.535905
Ar 0.124446 0.248893 -0.621886
3
LJ=-0.042041, KE=0.007148, Total=-0.034893
Ar -0.016241 -0.032481 0.097200
Ar -0.010728 -0.021457 0.538603
Ar 0.126969 0.253938 -0.635803
3
LJ=-0.056056, KE=0.020607, Total=-0.035449
Ar -0.017764 -0.035528 0.147196
Ar -0.011536 -0.023072 0.501516
Ar 0.129300 0.258600 -0.648712
3
LJ=-0.053898, KE=0.019000, Total=-0.034898
Ar -0.020579 -0.041157 0.123491
Ar -0.010927 -0.021853 0.537441
Ar 0.131505 0.263011 -0.660932
3
LJ=-0.036036, KE=0.001134, Total=-0.034902
Ar -0.022943 -0.045886 0.108987
Ar -0.010647 -0.021294 0.563521
Ar 0.133590 0.267180 -0.672508
3
LJ=-0.052301, KE=0.017408, Total=-0.034893
Ar -0.024120 -0.048240 0.133507
Ar -0.011433 -0.022866 0.549951
Ar 0.135553 0.271106 -0.683458
3
LJ=-0.051306, KE=0.015992, Total=-0.035315
Ar -0.024857 -0.049715 0.171701
Ar -0.012566 -0.025131 0.522217
Ar 0.137423 0.274846 -0.693918
3
LJ=-0.041950, KE=0.007058, Total=-0.034892
Ar -0.028134 -0.056268 0.132907
Ar -0.011090 -0.022179 0.571090
Ar 0.139224 0.278448 -0.703997
3
LJ=-0.037631, KE=0.002733, Total=-0.034899
Ar -0.029820 -0.059641 0.132701
Ar -0.011128 -0.022256 0.580981
Ar 0.140948 0.281897 -0.713681
3
LJ=-0.066342, KE=0.031157, Total=-0.035185
Ar -0.029747 -0.059493 0.172681
Ar -0.012856 -0.025711 0.550322
Ar 0.142602 0.285204 -0.723003
3
LJ=-0.063026, KE=0.028016, Total=-0.035010
Ar -0.031599 -0.063198 0.171021
Ar -0.012605 -0.025210 0.561025
Ar 0.144204 0.288409 -0.732045
3
LJ=-0.036429, KE=0.001529, Total=-0.034900
Ar -0.034445 -0.068891 0.145437
Ar -0.011313 -0.022627 0.595396
Ar 0.145759 0.291518 -0.740833
3
LJ=-0.044600, KE=0.009711, Total=-0.034889
Ar -0.035189 -0.070378 0.159634
Ar -0.012073 -0.024146 0.589725
Ar 0.147262 0.294524 -0.749359
3
LJ=-0.036790, KE=0.002343, Total=-0.034446
Ar -0.034067 -0.068134 0.207843
Ar -0.014655 -0.029310 0.549815
Ar 0.148722 0.297444 -0.757658
3
LJ=-0.047557, KE=0.012669, Total=-0.034888
Ar -0.037724 -0.075447 0.171501
Ar -0.012425 -0.024849 0.594274
Ar 0.150148 0.300297 -0.765775
3
LJ=-0.035740, KE=0.000838, Total=-0.034901
Ar -0.039714 -0.079428 0.161811
Ar -0.011825 -0.023650 0.611896
Ar 0.151539 0.303079 -0.773707
3
LJ=-0.058733, KE=0.023797, Total=-0.034936
Ar -0.039218 -0.078435 0.191542
Ar -0.013678 -0.027355 0.589916
Ar 0.152895 0.305790 -0.781458
3
LJ=-0.065383, KE=0.029979, Total=-0.035405
Ar -0.039334 -0.078667 0.212401
Ar -0.014889 -0.029778 0.576658
Ar 0.154223 0.308445 -0.789059
3
LJ=-0.038556, KE=0.003660, Total=-0.034896
Ar -0.043084 -0.086167 0.177401
Ar -0.012442 -0.024884 0.619127
Ar 0.155526 0.311051 -0.796528
3
LJ=-0.039722, KE=0.004828, Total=-0.034895
Ar -0.044012 -0.088023 0.182634
Ar -0.012790 -0.025580 0.621224
Ar 0.156802 0.313603 -0.803858
3
LJ=-0.061104, KE=0.025588, Total=-0.035516
Ar -0.042068 -0.084135 0.227761
Ar -0.015985 -0.031971 0.583300
Ar 0.158053 0.316106 -0.811061
3
LJ=-0.055460, KE=0.020551, Total=-0.034909
Ar -0.044981 -0.089963 0.207253
Ar -0.014304 -0.028607 0.610905
Ar 0.159285 0.318570 -0.818158
3
LJ=-0.035390, KE=0.000489, Total=-0.034902
Ar -0.047682 -0.095364 0.188461
Ar -0.012816 -0.025631 0.636690
Ar 0.160497 0.320995 -0.825152
3
LJ=-0.050024, KE=0.015134, Total=-0.034890
Ar -0.047312 -0.094624 0.208810
Ar -0.014377 -0.028755 0.623231
Ar 0.161690 0.323379 -0.832041
3
LJ=-0.044920, KE=0.009891, Total=-0.035030
Ar -0.045448 -0.090897 0.248095
Ar -0.017416 -0.034832 0.590742
Ar 0.162864 0.325728 -0.838838
3
LJ=-0.042423, KE=0.007532, Total=-0.034891
Ar -0.050048 -0.100095 0.207747
Ar -0.013977 -0.027953 0.637808
Ar 0.164024 0.328049 -0.845555
3
LJ=-0.036817, KE=0.001918, Total=-0.034899
Ar -0.051507 -0.103015 0.204540
Ar -0.013661 -0.027322 0.647650
Ar 0.165169 0.330337 -0.852190
3
LJ=-0.065306, KE=0.030187, Total=-0.035120
Ar -0.049544 -0.099089 0.241149
Ar -0.016753 -0.033506 0.617596
Ar 0.166297 0.332595 -0.858745
3
LJ=-0.063981, KE=0.028929, Total=-0.035052
Ar -0.050738 -0.101476 0.242140
Ar -0.016676 -0.033352 0.623092
Ar 0.167414 0.334827 -0.865233
